Circuit: * C:\Users\User\Documents\LTspiceXVII\Analog IC Design\CMOS Inverter\Cmos DC\Draft2.asc

.OP point found by inspection.

Date: Fri Feb 04 20:56:11 2022
Total elapsed time: 0.031 seconds.

tnom = 27
temp = 27
method = modified trap
totiter = 2318
traniter = 2318
tranpoints = 1160
accept = 1135
rejected = 25
matrix size = 3
fillins = 0
solver = Normal
Matrix Compiler1:       5 opcodes  0.1/[0.0]/0.0
Matrix Compiler2:      15 opcodes  0.1/[0.0]/0.1

