Circuit: * C:\Users\User\Documents\LTspiceXVII\Analog IC Design\CMOS Inverter\Cmos DC\Draft1.asc


Date: Mon Jan 31 16:20:32 2022
Total elapsed time: 0.094 seconds.

tnom = 27
temp = 27
method = trap
totiter = 371
traniter = 0
tranpoints = 0
accept = 0
rejected = 0
matrix size = 5
fillins = 0
solver = Normal
Matrix Compiler1:       8 opcodes  0.1/[0.0]/0.1
Matrix Compiler2: off  [0.1]/0.1/0.1

