Circuit: * C:\Users\User\Documents\LTspiceXVII\Digital IC Design\cmos dc.asc

Instance "m2": Length shorter than recommended for a level 1 MOSFET.
Instance "m2": Width narrower than recommended for a level 1 MOSFET.
Instance "m1": Length shorter than recommended for a level 1 MOSFET.
Instance "m1": Width narrower than recommended for a level 1 MOSFET.
.step x=1.8e-007
.step x=2.7e-007
.step x=3.6e-007
.step x=4.5e-007
.step x=5.4e-007
.step x=6.3e-007
.step x=7.2e-007
.step x=8.1e-007
.step x=9e-007
.step x=9.9e-007
.step x=1.08e-006
.step x=1.17e-006
.step x=1.26e-006
.step x=1.35e-006
.step x=1.44e-006
.step x=1.53e-006
.step x=1.62e-006
.step x=1.71e-006
.step x=1.8e-006
.step x=1.89e-006
.step x=1.98e-006
.step x=2.07e-006
.step x=2.16e-006
.step x=2.25e-006
.step x=2.34e-006
.step x=2.43e-006
.step x=2.52e-006
.step x=2.61e-006
.step x=2.7e-006
.step x=2.79e-006
.step x=2.88e-006
.step x=2.97e-006
.step x=3.06e-006
.step x=3.15e-006
.step x=3.24e-006
.step x=3.33e-006
.step x=3.42e-006
.step x=3.5e-006

Date: Mon Jan 31 16:14:24 2022
Total elapsed time: 1.703 seconds.

tnom = 27
temp = 27
method = trap
totiter = 373
traniter = 0
tranpoints = 0
accept = 0
rejected = 0
matrix size = 5
fillins = 0
solver = Normal
Matrix Compiler1: 132 bytes object code size  0.1/0.0/[0.0]
Matrix Compiler2: 335 bytes object code size  0.1/0.1/[0.0]

