Circuit: * C:\Users\User\Documents\LTspiceXVII\Draft2.asc

.OP point found by inspection.
.step vgs=0
.step vgs=0.3
.step vgs=0.6
.step vgs=0.9
.step vgs=1.2
.step vgs=1.5
.step vgs=1.8

Date: Tue Sep 14 16:23:08 2021
Total elapsed time: 0.252 seconds.

tnom = 27
temp = 27
method = trap
totiter = 2581
traniter = 0
tranpoints = 0
accept = 0
rejected = 0
matrix size = 4
fillins = 0
solver = Normal
Matrix Compiler1: 154 bytes object code size  0.1/0.1/[0.0]
Matrix Compiler2: 244 bytes object code size  0.1/0.1/[0.1]

