Circuit: * C:\Users\User\Documents\LTspiceXVII\Draft5.asc

V2: Missing value, assumed 0V @ DC
.step v1=-1.8

Date: Fri Dec 24 16:16:22 2021
Total elapsed time: 0.075 seconds.

tnom = 27
temp = 27
method = trap
totiter = 41
traniter = 0
tranpoints = 0
accept = 0
rejected = 0
matrix size = 4
fillins = 0
solver = Normal
Matrix Compiler1: 118 bytes object code size
Matrix Compiler2: 216 bytes object code size
