Circuit: * C:\Users\User\Documents\LTspiceXVII\nand.asc

Limiting rise time of source v2 to 5e-009
Limiting fall time of source v2 to 5e-009
Limiting rise time of source v1 to 1e-008
Limiting fall time of source v1 to 1e-008
Instance "m2": Length shorter than recommended for a level 1 MOSFET.
Instance "m2": Width narrower than recommended for a level 1 MOSFET.
Instance "m1": Length shorter than recommended for a level 1 MOSFET.
Instance "m1": Width narrower than recommended for a level 1 MOSFET.
Instance "m4": Length shorter than recommended for a level 1 MOSFET.
Instance "m4": Width narrower than recommended for a level 1 MOSFET.
Instance "m3": Length shorter than recommended for a level 1 MOSFET.
Instance "m3": Width narrower than recommended for a level 1 MOSFET.
Direct Newton iteration for .op point succeeded.

Date: Fri Dec 24 18:29:49 2021
Total elapsed time: 0.119 seconds.

tnom = 27
temp = 27
method = modified trap
totiter = 2934
traniter = 2928
tranpoints = 1177
accept = 1149
rejected = 28
matrix size = 8
fillins = 0
solver = Normal
Matrix Compiler1: 336 bytes object code size  0.2/0.1/[0.1]
Matrix Compiler2: 624 bytes object code size  0.1/0.1/[0.1]

