Circuit: * C:\Users\User\Documents\LTspiceXVII\nor.asc

Limiting rise time of source v2 to 5e-009
Limiting fall time of source v2 to 5e-009
Limiting rise time of source v1 to 1e-008
Limiting fall time of source v1 to 1e-008
WARNING: Node NC_01 is floating.

Instance "m1": Length shorter than recommended for a level 1 MOSFET.
Instance "m1": Width narrower than recommended for a level 1 MOSFET.
Instance "m3": Length shorter than recommended for a level 1 MOSFET.
Instance "m3": Width narrower than recommended for a level 1 MOSFET.
Direct Newton iteration for .op point succeeded.

Date: Fri Dec 24 18:31:20 2021
Total elapsed time: 0.112 seconds.

tnom = 27
temp = 27
method = modified trap
totiter = 2592
traniter = 2581
tranpoints = 1176
accept = 1147
rejected = 29
matrix size = 9
fillins = 0
solver = Normal
Matrix Compiler1: 404 bytes object code size  0.2/0.1/[0.1]
Matrix Compiler2: 731 bytes object code size  0.1/0.2/[0.1]

