Circuit: * C:\Users\User\Documents\LTspiceXVII\Output_Transfer Characteristics.asc


Date: Wed Dec 29 18:38:53 2021
Total elapsed time: 0.068 seconds.

tnom = 27
temp = 27
method = trap
totiter = 364
traniter = 0
tranpoints = 0
accept = 0
rejected = 0
matrix size = 4
fillins = 0
solver = Normal
Matrix Compiler1: 118 bytes object code size  0.1/0.0/[0.0]
Matrix Compiler2: 216 bytes object code size  0.0/0.0/[0.0]

