Circuit: * C:\Users\User\Documents\LTspiceXVII\Voh, Vol - Copy.asc

Instance "m1": Length shorter than recommended for a level 1 MOSFET.
Instance "m1": Width narrower than recommended for a level 1 MOSFET.
Direct Newton iteration for .op point succeeded.

Date: Tue Oct 12 15:08:35 2021
Total elapsed time: 0.124 seconds.

tnom = 27
temp = 27
method = modified trap
totiter = 942
traniter = 939
tranpoints = 470
accept = 460
rejected = 10
matrix size = 5
fillins = 0
solver = Normal
Matrix Compiler1: 114 bytes object code size  0.1/0.1/[0.0]
Matrix Compiler2: 301 bytes object code size  0.1/0.1/[0.0]

