Circuit: * C:\Users\User\Documents\LTspiceXVII\Draft1.asc

Vds: Missing value, assumed 0V @ DC
Vgs: Missing value, assumed 0V @ DC
.OP point found by inspection.
.step vgs=0
.step vgs=0.3
.step vgs=0.6
.step vgs=0.9
.step vgs=1.2
.step vgs=1.5
.step vgs=1.8

Date: Tue Sep 14 15:32:12 2021
Total elapsed time: 0.482 seconds.

tnom = 27
temp = 27
method = trap
totiter = 2544
traniter = 0
tranpoints = 0
accept = 0
rejected = 0
matrix size = 4
fillins = 0
solver = Normal
Matrix Compiler1: 118 bytes object code size  0.1/0.1/[0.0]
Matrix Compiler2: 216 bytes object code size  0.1/0.1/[0.0]

