Circuit: * C:\Users\User\Documents\LTspiceXVII\Draft5.asc

V2: Missing value, assumed 0V @ DC

Date: Tue Sep 07 18:07:59 2021
Total elapsed time: 0.094 seconds.

tnom = 27
temp = 27
method = trap
totiter = 54
traniter = 0
tranpoints = 0
accept = 0
rejected = 0
matrix size = 4
fillins = 0
solver = Normal
Matrix Compiler1: 118 bytes object code size
Matrix Compiler2: 216 bytes object code size
