Circuit: * C:\Users\User\Documents\LTspiceXVII\Inverter Transient.asc

Instance "m1": Length shorter than recommended for a level 1 MOSFET.
Instance "m1": Width narrower than recommended for a level 1 MOSFET.
Direct Newton iteration for .op point succeeded.

Date: Sat Oct 23 08:13:17 2021
Total elapsed time: 0.090 seconds.

tnom = 27
temp = 27
method = modified trap
totiter = 943
traniter = 940
tranpoints = 466
accept = 450
rejected = 16
matrix size = 5
fillins = 0
solver = Normal
Matrix Compiler1: 114 bytes object code size  0.1/0.1/[0.1]
Matrix Compiler2: off  [0.1]/0.1/0.1

