Circuit: * C:\Users\User\Documents\LTspiceXVII\Inverter Transient.asc

Instance "m1": Length shorter than recommended for a level 1 MOSFET.
Instance "m1": Width narrower than recommended for a level 1 MOSFET.
Direct Newton iteration for .op point succeeded.

Date: Mon Oct 18 11:33:58 2021
Total elapsed time: 0.109 seconds.

tnom = 27
temp = 27
method = modified trap
totiter = 899
traniter = 896
tranpoints = 448
accept = 442
rejected = 6
matrix size = 5
fillins = 0
solver = Normal
Matrix Compiler1: 114 bytes object code size  0.1/0.1/[0.0]
Matrix Compiler2: 301 bytes object code size  0.1/0.1/[0.1]

