Circuit: * C:\Users\User\Documents\LTspiceXVII\Output_Transfer Characteristics.asc

V2: Missing value, assumed 0V @ DC

Date: Mon Oct 18 11:35:42 2021
Total elapsed time: 0.078 seconds.

tnom = 27
temp = 27
method = trap
totiter = 54
traniter = 0
tranpoints = 0
accept = 0
rejected = 0
matrix size = 4
fillins = 0
solver = Normal
Matrix Compiler1: 118 bytes object code size
Matrix Compiler2: 216 bytes object code size
