Circuit: * C:\Users\User\Documents\LTspiceXVII\resistive load inverter.asc

Instance "m1": Length shorter than recommended for a level 1 MOSFET.
Instance "m1": Width narrower than recommended for a level 1 MOSFET.
Direct Newton iteration for .op point succeeded.
.step x=0
.step x=2e-012
.step x=4e-012
.step x=6e-012
.step x=8e-012
.step x=1e-011

Date: Tue Oct 05 15:35:56 2021
Total elapsed time: 0.518 seconds.

tnom = 27
temp = 27
method = modified trap
totiter = 5115
traniter = 5112
tranpoints = 2557
accept = 2548
rejected = 9
matrix size = 5
fillins = 0
solver = Normal
Matrix Compiler1: 114 bytes object code size  0.1/0.1/[0.0]
Matrix Compiler2: 301 bytes object code size  0.1/0.1/[0.1]

