Circuit: * C:\Users\User\Documents\LTspiceXVII\Voh, Vol.asc

Instance "m1": Length shorter than recommended for a level 1 MOSFET.
Instance "m1": Width narrower than recommended for a level 1 MOSFET.

Date: Tue Oct 05 16:23:27 2021
Total elapsed time: 0.097 seconds.

tnom = 27
temp = 27
method = trap
totiter = 364
traniter = 0
tranpoints = 0
accept = 0
rejected = 0
matrix size = 5
fillins = 0
solver = Normal
Matrix Compiler1: 114 bytes object code size  0.1/0.0/[0.0]
Matrix Compiler2: 301 bytes object code size  0.1/0.1/[0.1]

