Circuit: * C:\Users\User\Documents\LTspiceXVII\Analog IC Design\nmos 150 nm\nmos output char.asc

Error on line 1123 : .model nmos150 nmos  sign = 1 tg = -1  scale = 1.0 xl = 0.0 xw = 0.0  cox = 8.58e-3 gammag = 18.4 aqma = 0.0 aqmi = 0.0 etaqm = 0.75  vto = 400.0e-3 phif = 450.0e-3 gamma = 300.0e-3 xj = 30.0e-9 n0 = 1.025  kp = 390.0e-6 e0 = 438.0e+6 e1 = 159.0e+6 eta = 0.57 zc = 1.0e-6 thc = 0.0  pdits = 2.58e-6 pditsd = 0.91 pditsl = 0.0 fprout = 1.85e+6 ddits = 0.1  avto = 0.0 akp = 0.0 agamma = 0.0  ucrit = 5.0e+6 delta = 1.5 lambda = 0.5 aclm = 0.85  dl = -16.7e-9 dlc = -23.0e-9 wdl = 0.0 ll = 0.0 lln = 1.0 dw = -45.3e-9 dwc = 0.0 ldw = 0.0  leta0 = 1.0e+6 leta = 1.3 leta2 = 0.0 weta = 1.0 ncs = 0.5  etad = 0. 75 sigmad = 1.0  lr = 100e-9 qlr = 580e-6 nlr = 100.0e-3 flr = 2  wr = 80.0e-9 qwr = 500.0e-6 nwr = 12.0e-3  rlx = 170.0e-6  lov = 25.0e-9 gammaov = 5.0 vfbov = 0.0 kjf = 150.0e-12 cjf = 300.0e-3  kg = 50.0e-6 xb = 5.5 eb = 21.0e+9 lovig = 40.0e-12  tnom = 30.0 tcv = 600.0e-6 bex = -1.6 te0ex = -4.15 te1ex = 0.0 teta = 2.0e-3  ucex = 1.2 tlambda = 0.15 tcvl = 0.0 tcvw = 0.0 tcvwl = 0.0
	* Unrecognized parameter "sign" -- ignored
	* Unrecognized parameter "tg" -- ignored
	* Unrecognized parameter "scale" -- ignored
	* Unrecognized parameter "xl" -- ignored
	* Unrecognized parameter "xw" -- ignored
	* Unrecognized parameter "cox" -- ignored
	* Unrecognized parameter "gammag" -- ignored
	* Unrecognized parameter "aqma" -- ignored
	* Unrecognized parameter "aqmi" -- ignored
	* Unrecognized parameter "etaqm" -- ignored
	* Unrecognized parameter "phif" -- ignored
	* Unrecognized parameter "xj" -- ignored
	* Unrecognized parameter "n0" -- ignored
	* Unrecognized parameter "e0" -- ignored
	* Unrecognized parameter "e1" -- ignored
	* Unrecognized parameter "eta" -- ignored
	* Unrecognized parameter "zc" -- ignored
	* Unrecognized parameter "thc" -- ignored
	* Unrecognized parameter "pdits" -- ignored
	* Unrecognized parameter "pditsd" -- ignored
	* Unrecognized parameter "pditsl" -- ignored
	* Unrecognized parameter "fprout" -- ignored
	* Unrecognized parameter "ddits" -- ignored
	* Unrecognized parameter "avto" -- ignored
	* Unrecognized parameter "akp" -- ignored
	* Unrecognized parameter "agamma" -- ignored
	* Unrecognized parameter "ucrit" -- ignored
	* Unrecognized parameter "delta" -- ignored
	* Unrecognized parameter "aclm" -- ignored
	* Unrecognized parameter "dl" -- ignored
	* Unrecognized parameter "dlc" -- ignored
	* Unrecognized parameter "wdl" -- ignored
	* Unrecognized parameter "ll" -- ignored
	* Unrecognized parameter "lln" -- ignored
	* Unrecognized parameter "dw" -- ignored
	* Unrecognized parameter "dwc" -- ignored
	* Unrecognized parameter "ldw" -- ignored
	* Unrecognized parameter "leta0" -- ignored
	* Unrecognized parameter "leta" -- ignored
	* Unrecognized parameter "leta2" -- ignored
	* Unrecognized parameter "weta" -- ignored
	* Unrecognized parameter "ncs" -- ignored
	* Unrecognized parameter "etad" -- ignored
	* Unrecognized parameter "sigmad" -- ignored
	* Unrecognized parameter "lr" -- ignored
	* Unrecognized parameter "qlr" -- ignored
	* Unrecognized parameter "nlr" -- ignored
	* Unrecognized parameter "flr" -- ignored
	* Unrecognized parameter "wr" -- ignored
	* Unrecognized parameter "qwr" -- ignored
	* Unrecognized parameter "nwr" -- ignored
	* Unrecognized parameter "rlx" -- ignored
	* Unrecognized parameter "lov" -- ignored
	* Unrecognized parameter "gammaov" -- ignored
	* Unrecognized parameter "vfbov" -- ignored
	* Unrecognized parameter "kjf" -- ignored
	* Unrecognized parameter "cjf" -- ignored
	* Unrecognized parameter "kg" -- ignored
	* Unrecognized parameter "xb" -- ignored
	* Unrecognized parameter "eb" -- ignored
	* Unrecognized parameter "lovig" -- ignored
	* Unrecognized parameter "tcv" -- ignored
	* Unrecognized parameter "bex" -- ignored
	* Unrecognized parameter "te0ex" -- ignored
	* Unrecognized parameter "te1ex" -- ignored
	* Unrecognized parameter "teta" -- ignored
	* Unrecognized parameter "ucex" -- ignored
	* Unrecognized parameter "tlambda" -- ignored
	* Unrecognized parameter "tcvl" -- ignored
	* Unrecognized parameter "tcvw" -- ignored
	* Unrecognized parameter "tcvwl" -- ignored
WARNING: Node N003 is floating.

.OP point found by inspection.
.step vgs=0
.step vgs=0.3
.step vgs=0.6
.step vgs=0.9
.step vgs=1.2
.step vgs=1.5
.step vgs=1.8

Date: Mon Jan 24 13:15:38 2022
Total elapsed time: 0.125 seconds.

tnom = 27
temp = 27
method = trap
totiter = 2560
traniter = 0
tranpoints = 0
accept = 0
rejected = 0
matrix size = 5
fillins = 0
solver = Normal
Matrix Compiler1: 204 bytes object code size  0.1/0.1/[0.0]
Matrix Compiler2: 311 bytes object code size  0.1/0.1/[0.0]

