Circuit: * C:\Users\User\Documents\LTspiceXVII\Analog IC Design\Common Gate Amp\CGAmp.asc

WARNING: Node OUT is floating.

WARNING: Less than two connections to node OUT.  This node is used by C1.
Direct Newton iteration for .op point succeeded.

Date: Mon Feb 21 11:27:17 2022
Total elapsed time: 0.156 seconds.

tnom = 27
temp = 27
method = trap
totiter = 6
traniter = 0
tranpoints = 0
accept = 0
rejected = 0
matrix size = 7
fillins = 0
solver = Normal
Matrix Compiler1:      14 opcodes
Matrix Compiler2: 521 bytes object code size
