Circuit: * C:\Users\User\Documents\LTspiceXVII\Analog IC Design\CMOS Inverter\level 1.asc

Direct Newton iteration for .op point succeeded.

Date: Mon Jan 31 16:52:56 2022
Total elapsed time: 0.062 seconds.

tnom = 27
temp = 27
method = modified trap
totiter = 301
traniter = 298
tranpoints = 138
accept = 118
rejected = 20
matrix size = 5
fillins = 0
solver = Normal
Matrix Compiler1: 114 bytes object code size  0.1/0.1/[0.0]
Matrix Compiler2: 301 bytes object code size  0.1/0.1/[0.1]

