Circuit: * C:\Users\User\Documents\LTspiceXVII\Analog IC Design\Current Mirror\mirror.asc

WARNING: Node OUT is floating.
WARNING: Node N004 is floating.

WARNING: Less than two connections to node OUT.  This node is used by C1.
Direct Newton iteration for .op point succeeded.

Date: Mon Mar 14 11:52:15 2022
Total elapsed time: 0.082 seconds.

tnom = 27
temp = 27
method = modified trap
totiter = 2047
traniter = 2034
tranpoints = 1018
accept = 1018
rejected = 0
matrix size = 10
fillins = 1
solver = Normal
Matrix Compiler1: 400 bytes object code size  0.2/0.1/[0.1]
Matrix Compiler2: 694 bytes object code size  0.1/0.2/[0.1]

