Circuit: * C:\Users\User\Documents\LTspiceXVII\Analog IC Design\Lab_Exam\exam.asc

WARNING: Node OUT is floating.

WARNING: Less than two connections to node OUT.  This node is used by C1.
Direct Newton iteration for .op point succeeded.

Date: Fri Mar 25 10:38:41 2022
Total elapsed time: 0.097 seconds.

tnom = 27
temp = 27
method = modified trap
totiter = 2057
traniter = 2051
tranpoints = 1018
accept = 1018
rejected = 0
matrix size = 7
fillins = 0
solver = Normal
Matrix Compiler1: 268 bytes object code size  0.2/0.1/[0.1]
Matrix Compiler2: 469 bytes object code size  0.1/0.1/[0.1]

