Circuit: * C:\Users\User\Documents\LTspiceXVII\Analog IC Design\voltage feedback\vcvs.asc

Direct Newton iteration for .op point succeeded.

Date: Mon May 02 18:59:28 2022
Total elapsed time: 0.047 seconds.

tnom = 27
temp = 27
method = trap
totiter = 3
traniter = 0
tranpoints = 0
accept = 0
rejected = 0
matrix size = 7
fillins = 1
solver = Normal
Matrix Compiler1: 196 bytes object code size
Matrix Compiler2: 393 bytes object code size
