Circuit: * C:\Users\User\Documents\LTspiceXVII\Analog IC Design\voltage feedback\vcvs feedback.asc

Direct Newton iteration for .op point succeeded.

Date: Mon May 02 19:02:16 2022
Total elapsed time: 0.047 seconds.

tnom = 27
temp = 27
method = trap
totiter = 3
traniter = 0
tranpoints = 0
accept = 0
rejected = 0
matrix size = 6
fillins = 0
solver = Normal
Matrix Compiler1: 182 bytes object code size
Matrix Compiler2: 354 bytes object code size
