Circuit: * C:\Users\User\Documents\LTspiceXVII\Analog IC Design\OpAmp\non_inverting.asc

Direct Newton iteration failed to find .op point.  (Use ".option noopiter" to skip.)
Starting Gmin stepping
Increasing initial diagonal Gmin to 100
Gmin = 100
Gmin = 10.7374
Gmin = 1.15292
Gmin = 0.123794
Gmin = 0.0132923
Gmin = 0.00142725
Gmin = 0.00015325
Gmin = 1.6455e-005
Gmin = 1.76685e-006
Gmin = 1.89714e-007
vernier = 0.5
Gmin = 5.39022e-008
vernier = 0.666667
vernier = 0.888888
Gmin = 9.57911e-009
vernier = 1
Gmin = 1.07583e-009
Gmin = 1.15517e-010
Gmin = 1.24035e-011
Gmin = 1.33182e-012
Gmin = 1.43003e-013
Gmin = 0
Gmin stepping succeeded in finding the operating point.


Date: Fri May 06 20:27:31 2022
Total elapsed time: 0.050 seconds.

tnom = 27
temp = 27
method = trap
totiter = 794
traniter = 0
tranpoints = 0
accept = 0
rejected = 0
matrix size = 22
fillins = 12
solver = Normal
Matrix Compiler1:     103 opcodes
Matrix Compiler2: off  [0.4]/0.5/0.6

