Circuit: * C:\Users\User\Documents\LTspiceXVII\Analog IC Design\OpAmp\non_inverting.asc

Direct Newton iteration failed to find .op point.  (Use ".option noopiter" to skip.)
Starting Gmin stepping
Increasing initial diagonal Gmin to 100
Gmin = 100
Gmin = 10.7374
Gmin = 1.15292
Gmin = 0.123794
Gmin = 0.0132923
Gmin = 0.00142725
Gmin = 0.00015325
Gmin = 1.6455e-005
Gmin = 1.76685e-006
Gmin = 1.89714e-007
Gmin = 2.03704e-008
Gmin = 2.18725e-009
Gmin = 2.34854e-010
Gmin = 2.52173e-011
Gmin = 2.70769e-012
Gmin = 2.90735e-013
Gmin = 0
Gmin stepping succeeded in finding the operating point.


Date: Mon Apr 18 11:16:38 2022
Total elapsed time: 0.224 seconds.

tnom = 27
temp = 27
method = modified trap
totiter = 3004
traniter = 2284
tranpoints = 1032
accept = 1028
rejected = 4
matrix size = 22
fillins = 12
solver = Normal
Matrix Compiler1: 1.79 KB object code size  1.0/0.6/[0.3]
Matrix Compiler2: 2.49 KB object code size  0.9/0.7/[0.5]

