Circuit: * C:\Users\User\Documents\LTspiceXVII\Analog IC Design\Assignment\ass_2_ques_3.asc

WARNING: Node OUT is floating.

WARNING: Less than two connections to node OUT.  This node is used by C2.
Instance "m2": Length shorter than recommended for a level 3 MOSFET.
Instance "m1": Length shorter than recommended for a level 3 MOSFET.
Instance "m1": Width narrower than recommended for a level 3 MOSFET.
Direct Newton iteration for .op point succeeded.

Date: Fri Mar 11 20:37:28 2022
Total elapsed time: 0.094 seconds.

tnom = 27
temp = 27
method = trap
totiter = 4
traniter = 0
tranpoints = 0
accept = 0
rejected = 0
matrix size = 7
fillins = 0
solver = Normal
Matrix Compiler1:      13 opcodes
Matrix Compiler2: 487 bytes object code size
