Circuit: * C:\Users\User\Documents\LTspiceXVII\Analog IC Design\Assignment\ass_2_ques_4.asc

WARNING: Node OUT is floating.

WARNING: Less than two connections to node OUT.  This node is used by C2.
Direct Newton iteration for .op point succeeded.

Date: Fri Mar 11 20:40:57 2022
Total elapsed time: 0.078 seconds.

tnom = 27
temp = 27
method = trap
totiter = 6
traniter = 0
tranpoints = 0
accept = 0
rejected = 0
matrix size = 9
fillins = 0
solver = Normal
Matrix Compiler1:      24 opcodes
Matrix Compiler2: 701 bytes object code size
