Circuit: * C:\Users\User\Documents\LTspiceXVII\Analog IC Design\Assignment\non-inverting amp opamp 1.asc

Direct Newton iteration failed to find .op point.  (Use ".option noopiter" to skip.)
Starting Gmin stepping
Gmin = 10
Gmin = 1.07374
Gmin = 0.115292
Gmin = 0.0123794
Gmin = 0.00132923
Gmin = 0.000142725
Gmin = 1.5325e-005
Gmin = 1.6455e-006
Gmin = 1.76685e-007
Gmin = 1.89714e-008
Gmin = 2.03704e-009
Gmin = 2.18725e-010
Gmin = 2.34854e-011
Gmin = 2.52173e-012
Gmin = 2.70769e-013
Gmin = 0
Gmin stepping succeeded in finding the operating point.


Date: Fri May 20 14:46:54 2022
Total elapsed time: 0.296 seconds.

tnom = 27
temp = 27
method = modified trap
totiter = 3739
traniter = 3237
tranpoints = 1267
accept = 1167
rejected = 100
matrix size = 23
fillins = 19
solver = Normal
Matrix Compiler1: 1.83 KB object code size  1.1/0.6/[0.3]
Matrix Compiler2: 2.72 KB object code size  0.6/0.7/[0.4]

