Circuit: * C:\Users\User\Documents\LTspiceXVII\Analog IC Design\pmos 150 nm\pmos output char.asc

.step vgs=-1.8
.step vgs=-1.3
.step vgs=-0.8
.step vgs=-0.3
.OP point found by inspection.
.step vgs=0

Date: Mon Jan 24 13:24:53 2022
Total elapsed time: 0.125 seconds.

tnom = 27
temp = 27
method = trap
totiter = 1817
traniter = 0
tranpoints = 0
accept = 0
rejected = 0
matrix size = 4
fillins = 0
solver = Normal
Matrix Compiler1: 118 bytes object code size  0.1/0.0/[0.0]
Matrix Compiler2: 216 bytes object code size  0.1/0.1/[0.0]

